data/projects/2mgs/circuit_plusmg_0.dss
clear
set defaultbasefrequency=60
new object=circuit.lehigh basekv=115 pu=1.0001 phases=3 bus1=sourcebus angle=30 mvasc3=20000 mvasc1=21000
edit object=vsource.source basekv=115 bus1=sourcebus.1.2.3 pu=1.00 r1=0 x1=0.0001 r0=0 x0=0.0001
new object=vsource.secondsource basekv=4.16 bus1=680.1.2.3 pu=1.00 r1=0 x1=0.0001 r0=0 x0=0.0001
new object=transformer.sub phases=3 windings=2 xhl=0.008 buses=[sourcebus.1.2.3,650.1.2.3] conns=[delta,wye] kvs=[115,4.16] kvas=[5000,5000] %rs=[0.0005,0.0005]
new object=transformer.reg1 phases=1 bank=reg1 xhl=0.01 kvas=[1666,1666] buses=[650.1,rg60.1] kvs=[2.4,2.4] %loadloss=0.01
new object=regcontrol.reg1 transformer=reg1 winding=2 vreg=121 band=2 ptratio=20 ctprim=700 r=3 x=9
new object=transformer.reg2 phases=1 bank=reg1 xhl=0.01 kvas=[1666,1666] buses=[650.2,rg60.2] kvs=[2.4,2.4] %loadloss=0.01
new object=regcontrol.reg2 transformer=reg2 winding=2 vreg=121 band=2 ptratio=20 ctprim=700 r=3 x=9
new object=transformer.reg3 phases=1 bank=reg1 xhl=0.01 kvas=[1666,1666] buses=[650.3,rg60.3] kvs=[2.4,2.4] %loadloss=0.01
new object=regcontrol.reg3 transformer=reg3 winding=2 vreg=121 band=2 ptratio=20 ctprim=700 r=3 x=9
new object=transformer.xfm1 phases=3 windings=2 xhl=2 buses=[633.1.2.3,634.1.2.3] conns=[wye,wye] kvs=[4.16,0.480] kvas=[500,500] %rs=[0.55,0.55] xht=1 xlt=1
new object=linecode.mtx601 nphases=3 basefreq=60 rmatrix=[0.3465|0.1560,0.3375|0.1580,0.1535,0.3414] xmatrix=[1.0179|0.5017,1.0478|0.4236,0.3849,1.0348] units=mi
new object=linecode.mtx602 nphases=3 basefreq=60 rmatrix=[0.7526|0.1580,0.7475|0.1560,0.1535,0.7436] xmatrix=[1.1814|0.4236,1.1983|0.5017,0.3849,1.2112] units=mi
new object=linecode.mtx603 nphases=2 basefreq=60 rmatrix=[1.3238|0.2066,1.3294] xmatrix=[1.3569|0.4591,1.3471] units=mi
new object=linecode.mtx604 nphases=2 basefreq=60 rmatrix=[1.3238|0.2066,1.3294] xmatrix=[1.3569|0.4591,1.3471] units=mi
new object=linecode.mtx605 nphases=1 basefreq=60 rmatrix=[1.3292] xmatrix=[1.3475] units=mi
new object=linecode.mtx606 nphases=3 units=mi rmatrix=[0.791721|0.318476,0.781649|0.28345,0.318476,0.791721] xmatrix=[0.438352|0.0276838,0.396697|-0.0184204,0.0276838,0.438352] cmatrix=[383.948|0,383.948|0,0,383.948]
new object=linecode.mtx607 nphases=1 basefreq=60 rmatrix=[1.3425] xmatrix=[0.5124] cmatrix=[236] units=mi
new object=loadshape.solar_634_shape npts=8760 interval=1 useactual=yes mult=[0.0,0.0,0.0,0.0,0.0,0.0,0.0,0.0,8.5,25.771,36.379,111.789,25.635,59.907,89.622,96.49,48.211000000000006,3.196,0.0,0.0,0.0,0.0,0.0,0.0,0.0,0.0,0.0,0.0,0.0,0.0,0.0,0.0,22.303,56.643,79.286,3.128000000000001,170.2,60.859,220.995,151.976,80.238,6.868000000000001,0.0,0.0,0.0,0.0,0.0,0.0,0.0,0.0,0.0,0.0,0.0,0.0,0.0,0.0,65.414,152.52,202.635,85.882,152.724,152.316,124.437,108.04900000000002,56.711,4.488,0.0,0.0,0.0,0.0,0.0,0.0,0.0,0.0,0.0,0.0,0.0,0.0,0.0,0.0,99.54999999999998,228.067,323.808,383.579,406.358,395.614,348.015,266.758,145.381,28.559,0.0,0.0,0.0,0.0,0.0,0.0,0.0,0.0,0.0,0.0,0.0,0.0,0.0,0.0,108.253,241.53,339.856,399.422,421.182,406.29,355.291,270.838,146.741,27.879000000000005,0.0,0.0,0.0,0.0,0.0,0.0,0.0,0.0,0.0,0.0,0.0,0.0,0.0,0.0,85.542,202.567,317.552,284.573,321.7,331.832,333.125,252.75,136.813,25.567,0.0,0.0,0.0,0.0,0.0,0.0,0.0,0.0,0.0,0.0,0.0,0.0,0.0,0.0,86.834,86.222,308.101,353.388,316.465,303.001,255.402,130.557,68.95,7.344000000000001,0.0,0.0,0.0,0.0,0.0,0.0,0.0,0.0,0.0,0.0,0.0,0.0,0.0,0.0,88.398,206.103,54.399,71.67,160.409,185.84,152.248,98.666,52.35900000000001,6.052,0.0,0.0,0.0,0.0,0.0,0.0,0.0,0.0,0.0,0.0,0.0,0.0,0.0,0.0,90.846,208.551,111.789,237.791,186.248,86.97,111.517,93.294,48.347,22.847,0.0,0.0,0.0,0.0,0.0,0.0,0.0,0.0,0.0,0.0,0.0,0.0,0.0,0.0,42.091,104.038,167.616,287.294,166.732,217.731,221.13100000000003,178.428,99.54999999999998,17.476,0.0,0.0,0.0,0.0,0.0,0.0,0.0,0.0,0.0,0.0,0.0,0.0,0.0,0.0,109.613,242.619,339.584,397.995,419.482,406.359,358.896,279.405,165.848,40.867,0.0,0.0,0.0,0.0,0.0,0.0,0.0,0.0,0.0,0.0,0.0,0.0,0.0,0.0,101.25,229.97000000000003,322.72,391.331,415.266,406.018,359.779,272.402,161.972,40.255,0.0,0.0,0.0,0.0,0.0,0.0,0.0,0.0,0.0,0.0,0.0,0.0,0.0,0.0,99.074,227.386,320.204,295.385,327.888,298.173,269.07,214.671,127.361,30.803,0.0,0.0,0.0,0.0,0.0,0.0,0.0,0.0,0.0,0.0,0.0,0.0,0.0,0.0,41.275,97.782,177.204,225.891,258.802,237.518,140.485,114.373,64.53,10.54,0.0,0.0,0.0,0.0,0.0,0.0,0.0,0.0,0.0,0.0,0.0,0.0,0.0,0.0,21.759,58.41100000000001,271.313,338.224,390.65100000000007,387.523,346.18,270.294,157.552,39.847,0.0,0.0,0.0,0.0,0.0,0.0,0.0,0.0,0.0,0.0,0.0,0.0,0.0,0.0,90.098,209.367,295.317,249.758,293.549,382.219,230.991,105.534,59.091,10.676,0.0,0.0,0.0,0.0,0.0,0.0,0.0,0.0,0.0,0.0,0.0,0.0,0.0,0.0,93.158,224.054,327.072,398.6060000000001,413.771,403.163,358.012,281.717,164.964,42.975,0.0,0.0,0.0,0.0,0.0,0.0,0.0,0.0,0.0,0.0,0.0,0.0,0.0,0.0,101.726,229.155,331.56,392.691,417.1700000000001,406.699,365.015,285.797,167.888,44.335,0.0,0.0,0.0,0.0,0.0,0.0,0.0,0.0,0.0,0.0,0.0,0.0,0.0,0.0,107.302,240.579,337.408,395.071,432.81,421.726,374.807,286.681,176.388,48.347,0.0,0.0,0.0,0.0,0.0,0.0,0.0,0.0,0.0,0.0,0.0,0.0,0.0,0.0,105.33,234.935,328.501,384.667,405.678,393.507,350.804,276.617,167.616,45.083,0.0,0.0,0.0,0.0,0.0,0.0,0.0,0.0,0.0,0.0,0.0,0.0,0.0,0.0,27.131000000000004,67.93,102.882,58.751,170.336,45.423,47.39500000000001,0.68,0.0,0.0,0.0,0.0,0.0,0.0,0.0,0.0,0.0,0.0,0.0,0.0,0.0,0.0,0.0,0.0,25.023,73.506,207.736,221.879,418.87,409.826,193.659,168.024,97.714,21.691,0.0,0.0,0.0,0.0,0.0,0.0,0.0,0.0,0.0,0.0,0.0,0.0,0.0,0.0,28.287000000000003,73.37,85.27,212.223,447.769,440.221,392.895,310.14,187.131,53.039,0.0,0.0,0.0,0.0,0.0,0.0,0.0,0.0,0.0,0.0,0.0,0.0,0.0,0.0,112.197,247.038,344.276,402.55,426.826,416.49,373.04,295.725,185.22800000000004,54.263,0.0,0.0,0.0,0.0,0.0,0.0,0.0,0.0,0.0,0.0,0.0,0.0,0.0,0.0,106.89400000000002,236.091,328.432,384.939,408.126,396.974,356.447,284.437,177.816,52.42699999999999,0.0,0.0,0.0,0.0,0.0,0.0,0.0,0.0,0.0,0.0,0.0,0.0,0.0,0.0,70.922,162.584,187.404,278.181,311.432,298.445,271.721,199.847,122.39700000000002,34.951,0.0,0.0,0.0,0.0,0.0,0.0,0.0,0.0,0.0,0.0,0.0,0.0,0.0,0.0,84.318,196.991,190.872,354.544,374.059,271.382,37.671,263.834,155.852,43.859,0.0,0.0,0.0,0.0,0.0,0.0,0.0,0.0,0.0,0.0,0.0,0.0,0.0,0.0,23.867,38.419,57.935,89.554,70.718,49.095,49.77499999999999,19.312,9.928,0.204,0.0,0.0,0.0,0.0,0.0,0.0,0.0,0.0,0.0,0.0,0.0,0.0,0.0,0.0,112.333,244.79400000000004,340.808,400.171,424.378,414.926,375.419,301.709,185.704,58.819,0.0,0.0,0.0,0.0,0.0,0.0,0.0,0.0,0.0,0.0,0.0,0.0,0.0,0.0,106.689,235.886,330.064,386.639,410.3020000000001,401.871,361.888,232.283,154.56,58.41100000000001,0.0,0.0,0.0,0.0,0.0,0.0,0.0,0.0,0.0,0.0,0.0,0.0,0.0,0.0,33.319,102.202,174.008,176.116,226.571,213.991,193.184,138.989,85.27,24.479,0.0,0.0,0.0,0.0,0.0,0.0,0.0,0.0,0.0,0.0,0.0,0.0,0.0,0.0,112.265,246.766,349.716,409.69,434.986,427.438,383.919,309.46,192.707,64.327,0.0,0.0,0.0,0.0,0.0,0.0,0.0,0.0,0.0,0.0,0.0,0.0,0.0,0.0,112.67300000000002,240.239,333.26,390.515,413.838,407.446,368.959,298.649,192.64,65.55,0.0,0.0,0.0,0.0,0.0,0.0,0.0,0.0,0.0,0.0,0.0,0.0,0.0,0.0,111.857,97.03400000000002,227.59000000000003,282.805,322.72,316.124,272.333,77.994,56.371,37.195,0.0,0.0,0.0,0.0,0.0,0.0,0.0,0.0,0.0,0.0,0.0,0.0,0.0,0.0,0.0,86.426,233.03,326.8,425.806,425.466,389.835,317.009,200.051,70.378,0.0,0.0,0.0,0.0,0.0,0.0,0.0,0.0,0.0,0.0,0.0,0.0,0.0,0.0,80.782,215.419,322.244,430.43,363.723,408.874,401.394,311.773,120.49299999999998,58.615,0.0,0.0,0.0,0.0,0.0,0.0,0.0,0.0,0.0,0.0,0.0,0.0,0.0,0.0,59.431,78.878,59.431,89.554,59.295,247.583,225.483,163.672,56.847,7.820000000000001,0.0,0.0,0.0,0.0,0.0,0.0,0.0,0.0,0.0,0.0,0.0,0.0,0.0,0.0,4.42,28.559,44.675,159.864,192.43500000000003,89.622,129.809,56.575,34.339,64.666,0.0,0.0,0.0,0.0,0.0,0.0,0.0,0.0,0.0,0.0,0.0,0.0,0.0,0.0,28.152,26.791,103.902,203.519,186.655,233.507,255.198,307.761,198.96400000000003,71.398,0.0,0.0,0.0,0.0,0.0,0.0,0.0,0.0,0.0,0.0,0.0,0.0,0.0,0.0,22.575,57.32299999999999,107.23399999999998,399.354,149.869,149.053,169.18,127.293,3.128000000000001,66.366,0.0,0.0,0.0,0.0,0.0,0.0,0.0,0.0,0.0,0.0,0.0,0.0,0.0,0.0,36.107,160.476,346.86,414.042,437.094,434.986,395.274,321.769,208.279,78.538,0.0,0.0,0.0,0.0,0.0,0.0,0.0,0.0,0.0,0.0,0.0,0.0,0.0,11.492,132.393,264.242,362.023,419.346,443.35,434.1019999999999,394.663,322.584,215.419,82.55,0.0,0.0,0.0,0.0,0.0,0.0,0.0,0.0,0.0,0.0,0.0,0.0,0.0,11.695999999999998,127.633,254.654,346.52,402.55099999999993,426.554,420.094,395.071,313.065,207.871,80.034,0.0,0.0,0.0,0.0,0.0,0.0,0.0,0.0,0.0,0.0,0.0,0.0,0.0,14.756,134.161,264.31,367.939,412.478,435.054,365.49099999999993,346.588,265.67,209.77500000000003,45.287,0.0,0.0,0.0,0.0,0.0,0.0,0.0,0.0,0.0,0.0,0.0,0.0,0.0,0.272,74.526,170.608,241.123,274.509,324.012,342.916,228.066,200.595,142.185,48.211000000000006,0.0,0.0,0.0,0.0,0.0,0.0,0.0,0.0,0.0,0.0,0.0,0.0,0.0,3.264,120.085,240.783,337.408,396.295,420.774,414.314,377.799,305.381,195.427,75.546,0.0,0.0,0.0,0.0,0.0,0.0,0.0,0.0,0.0,0.0,0.0,0.0,0.0,0.0,17.884,25.363,80.442,112.537,120.017,145.312,92.54600000000002,80.306,85.474,31.755,0.0,0.0,0.0,0.0,0.0,0.0,0.0,0.0,0.0,0.0,0.0,0.0,0.0,0.0,1.972,87.718,156.056,202.023,305.517,349.103,273.149,337.885,127.497,43.655,0.0,0.0,0.0,0.0,0.0,0.0,0.0,0.0,0.0,0.0,0.0,0.0,0.0,14.348,44.539,96.014,169.248,234.255,453.073,437.434,398.538,327.548,220.995,89.146,0.0,0.0,0.0,0.0,0.0,0.0,0.0,0.0,0.0,0.0,0.0,0.0,0.0,18.36,136.201,263.426,354.612,410.3020000000001,430.09,421.59,385.551,316.737,213.991,86.766,0.0,0.0,0.0,0.0,0.0,0.0,0.0,0.0,0.0,0.0,0.0,0.0,0.0,16.728,51.815,216.779,261.998,405.2029999999999,426.486,418.938,382.491,313.949,212.427,82.482,0.0,0.0,0.0,0.0,0.0,0.0,0.0,0.0,0.0,0.0,0.0,0.0,0.0,7.412,27.539,135.521,127.497,176.048,241.667,197.05900000000003,251.39,123.893,38.623,0.068,0.0,0.0,0.0,0.0,0.0,0.0,0.0,0.0,0.0,0.0,0.0,0.0,0.0,0.0,3.536,1.7679999999999998,21.284,138.037,95.81,221.063,239.831,158.776,17.408,81.598,0.0,0.0,0.0,0.0,0.0,0.0,0.0,0.0,0.0,0.0,0.0,0.0,0.0,24.547,153.812,291.169,390.039,451.645,474.1530000000001,448.44999999999993,409.758,337.408,231.60300000000004,97.918,0.0,0.0,0.0,0.0,0.0,0.0,0.0,0.0,0.0,0.0,0.0,0.0,0.0,25.975000000000005,150.82,277.298,367.59899999999993,422.406,444.302,435.054,396.907,327.752,224.327,94.45,0.0,0.0,0.0,0.0,0.0,0.0,0.0,0.0,0.0,0.0,0.0,0.0,0.0,17.272,136.541,214.195,295.861,358.896,359.1,359.236,215.351,150.888,206.851,90.642,0.0,0.0,0.0,0.0,0.0,0.0,0.0,0.0,0.0,0.0,0.0,0.0,0.0,9.86,83.978,188.695,225.278,274.51,267.914,330.608,245.746,124.097,38.827,38.487,0.0,0.0,0.0,0.0,0.0,0.0,0.0,0.0,0.0,0.0,0.0,0.0,0.0,21.08,103.358,139.261,230.719,320.408,315.989,290.762,251.73,243.435,141.301,32.775,0.0,0.0,0.0,0.0,0.0,0.0,0.0,0.0,0.0,0.0,0.0,0.0,0.0,11.22,62.219,164.012,169.248,211.815,257.782,299.329,264.242,234.051,169.724,52.699,0.0,0.0,0.0,0.0,0.0,0.0,0.0,0.0,0.0,0.0,0.0,0.0,0.0,30.327000000000005,153.268,274.849,361.887,410.982,444.8450000000001,431.79,388.475,313.269,204.947,89.01,0.0,0.0,0.0,0.0,0.0,0.0,0.0,0.0,0.0,0.0,0.0,0.0,0.0,33.183,164.216,296.201,391.4669999999999,449.741,472.181,462.933,379.635,348.56,221.267,106.214,0.0,0.0,0.0,0.0,0.0,0.0,0.0,0.0,0.0,0.0,0.0,0.0,0.0,32.299,150.14,256.218,392.1470000000001,444.302,463.205,449.946,401.327,312.181,207.871,89.35,0.0,0.0,0.0,0.0,0.0,0.0,0.0,0.0,0.0,0.0,0.0,0.0,0.0,34.339,15.368,300.213,131.509,161.02,222.083,475.037,423.902,349.716,234.867,105.806,0.0,0.0,0.0,0.0,0.0,0.0,0.0,0.0,0.0,0.0,0.0,0.0,0.0,38.012,169.112,293.889,381.0630000000001,434.1019999999999,455.045,447.63400000000007,406.903,339.108,235.47900000000004,106.214,0.0,0.0,0.0,0.0,0.0,0.0,0.0,0.0,0.0,0.0,0.0,0.0,0.0,40.323,178.768,309.053,404.319,461.301,483.197,472.113,430.634,345.704,242.006,110.837,5.644000000000001,0.0,0.0,0.0,0.0,0.0,0.0,0.0,0.0,0.0,0.0,0.0,0.0,40.799,174.416,303.069,392.079,443.282,446.07,436.89,396.907,324.896,226.775,102.134,3.876,0.0,0.0,0.0,0.0,0.0,0.0,0.0,0.0,0.0,0.0,0.0,0.0,40.119,156.804,296.949,387.6590000000001,438.998,456.4049999999999,450.286,390.175,321.157,222.287,99.686,3.468,0.0,0.0,0.0,0.0,0.0,0.0,0.0,0.0,0.0,0.0,0.0,0.0,42.091,172.24,295.385,385.755,438.521,461.77699999999993,453.889,414.314,344.82,232.963,106.214,6.120000000000001,0.0,0.0,0.0,0.0,0.0,0.0,0.0,0.0,0.0,0.0,0.0,0.0,38.283,148.032,295.317,343.596,433.762,450.354,439.61,399.62700000000007,327.004,167.48,102.202,5.168,0.0,0.0,0.0,0.0,0.0,0.0,0.0,0.0,0.0,0.0,0.0,0.0,42.839,167.548,227.047,262.814,279.201,409.078,442.126,272.81,322.72,218.955,101.046,4.624,0.0,0.0,0.0,0.0,0.0,0.0,0.0,0.0,0.0,0.0,0.0,0.0,36.515,131.033,252.682,375.827,430.90600000000006,343.528,375.623,324.624,295.045,214.195,102.474,5.78,0.0,0.0,0.0,0.0,0.0,0.0,0.0,0.0,0.0,0.0,0.0,0.0,31.959,114.101,114.441,65.074,175.232,237.654,441.921,402.278,334.144,233.167,104.85399999999998,7.548,0.0,0.0,0.0,0.0,0.0,0.0,0.0,0.0,0.0,0.0,0.0,0.0,49.435,179.448,299.533,290.421,437.162,453.20900000000006,446.34100000000007,408.602,340.264,238.811,109.137,8.908,0.0,0.0,0.0,0.0,0.0,0.0,0.0,0.0,0.0,0.0,0.0,0.0,51.611,179.04,293.549,374.127,433.966,454.297,442.193,351.144,335.98,229.019,108.865,8.84,0.0,0.0,0.0,0.0,0.0,0.0,0.0,0.0,0.0,0.0,0.0,0.0,50.93099999999999,175.708,256.898,278.249,356.787,397.722,355.563,345.772,295.045,144.973,69.494,3.468,0.0,0.0,0.0,0.0,0.0,0.0,0.0,0.0,0.0,0.0,0.0,0.0,7.071999999999999,29.511,46.647,87.922,47.123000000000005,31.279,107.302,148.645,11.288000000000002,84.114,39.915,0.068,0.0,0.0,0.0,0.0,0.0,0.0,0.0,0.0,0.0,0.0,0.0,0.0,28.151,87.582,140.145,131.305,196.515,159.864,150.344,164.148,158.164,48.823,22.575,0.0,0.0,0.0,0.0,0.0,0.0,0.0,0.0,0.0,0.0,0.0,0.0,0.0,8.364,35.427,132.257,191.551,323.332,443.757,358.351,348.288,325.712,142.185,68.27,4.08,0.0,0.0,0.0,0.0,0.0,0.0,0.0,0.0,0.0,0.0,0.0,0.0,60.451,65.618,201.548,319.728,454.297,472.929,467.965,432.062,361.276,132.597,66.91,5.508,0.0,0.0,0.0,0.0,0.0,0.0,0.0,0.0,0.0,0.0,0.0,0.0,72.078,218.207,345.636,436.414,486.461,503.528,494.89200000000005,448.654,371.951,261.522,122.39700000000002,13.328,0.0,0.0,0.0,0.0,0.0,0.0,0.0,0.0,0.0,0.0,0.0,0.0,71.194,210.387,328.636,409.35,454.0930000000001,466.5369999999999,463.0690000000001,417.44200000000006,344.344,242.82200000000003,117.97700000000002,12.716,0.0,0.0,0.0,0.0,0.0,0.0,0.0,0.0,0.0,0.0,0.0,0.0,70.31,204.471,318.165,413.022,461.573,255.13,472.793,429.002,358.419,246.426,120.765,15.164,0.0,0.0,0.0,0.0,0.0,0.0,0.0,0.0,0.0,0.0,0.0,0.0,69.29,200.867,316.124,397.79,213.719,363.859,370.523,278.726,178.02,138.513,68.338,6.459999999999999,0.0,0.0,0.0,0.0,0.0,0.0,0.0,0.0,0.0,0.0,0.0,0.0,7.683999999999999,17.0,18.632,63.103,140.281,192.368,247.44600000000003,195.224,193.184,91.594,45.967000000000006,2.9239999999999995,0.0,0.0,0.0,0.0,0.0,0.0,0.0,0.0,0.0,0.0,0.0,0.0,2.9919999999999995,12.852,48.143,74.73,77.382,82.686,56.847,64.191,55.283,30.191000000000003,13.94,0.0,0.0,0.0,0.0,0.0,0.0,0.0,0.0,0.0,0.0,0.0,0.0,0.0,1.292,1.224,21.555,36.311,64.395,46.239,55.215,33.183,67.726,56.099,27.131000000000004,0.68,0.0,0.0,0.0,0.0,0.0,0.0,0.0,0.0,0.0,0.0,0.0,0.0,73.642,200.935,309.393,385.415,242.007,209.503,280.765,220.587,349.104,114.985,118.657,15.912000000000004,0.0,0.0,0.0,0.0,0.0,0.0,0.0,0.0,0.0,0.0,0.0,0.0,20.468,100.502,202.023,231.60300000000004,202.159,220.519,259.21,222.49100000000004,298.377,170.812,87.582,12.172,0.0,0.0,0.0,0.0,0.0,0.0,0.0,0.0,0.0,0.0,0.0,0.0,81.598,213.039,291.373,341.556,399.1499999999999,417.71400000000006,401.054,364.94700000000006,297.901,175.436,89.35,13.056,0.0,0.0,0.0,0.0,0.0,0.0,0.0,0.0,0.0,0.0,0.0,0.0,78.946,182.984,231.059,259.958,272.673,303.273,366.443,311.296,179.788,99.278,49.299,5.236,0.0,0.0,0.0,0.0,0.0,0.0,0.0,0.0,0.0,0.0,0.0,0.0,38.963,94.79000000000002,150.005,402.755,445.117,464.701,451.985,414.858,345.296,237.926,56.915000000000006,16.728,0.0,0.0,0.0,0.0,0.0,0.0,0.0,0.0,0.0,0.0,0.0,0.0,81.938,204.607,189.648,264.582,339.516,444.437,430.226,392.283,327.685,233.03,67.862,9.724,0.0,0.0,0.0,0.0,0.0,0.0,0.0,0.0,0.0,0.0,0.0,0.0,13.94,70.786,123.621,134.705,198.41900000000004,286.273,313.745,304.564,345.296,162.448,52.835,6.936,0.0,0.0,0.0,0.0,0.0,0.0,0.0,0.0,0.0,0.0,0.0,0.0,91.73,229.767,346.112,427.03,473.813,491.9,478.981,436.414,364.88,259.958,129.401,19.312,0.0,0.0,0.0,0.0,0.0,0.0,0.0,0.0,0.0,0.0,0.0,0.952,93.702,223.443,335.708,402.89,449.673,467.081,471.705,414.518,345.228,246.154,125.389,19.992,0.0,0.0,0.0,0.0,0.0,0.0,0.0,0.0,0.0,0.0,0.0,3.468,98.121,230.243,340.468,417.374,459.465,472.31700000000006,461.029,422.678,355.7,254.926,130.965,21.284,0.0,0.0,0.0,0.0,0.0,0.0,0.0,0.0,0.0,0.0,0.0,2.516,84.658,163.4,246.63,277.298,344.956,296.269,388.883,211.067,220.655,240.986,118.113,19.244,0.0,0.0,0.0,0.0,0.0,0.0,0.0,0.0,0.0,0.0,0.0,0.0,78.334,120.901,112.469,124.301,197.399,257.442,153.404,143.817,147.761,91.73,27.811,11.356,0.0,0.0,0.0,0.0,0.0,0.0,0.0,0.0,0.0,0.0,0.0,0.0,31.415,93.906,89.01,424.5820000000001,482.924,504.072,478.437,439.338,368.347,263.358,130.217,21.352,0.0,0.0,0.0,0.0,0.0,0.0,0.0,0.0,0.0,0.0,0.0,7.683999999999999,108.32099999999998,249.622,373.244,457.085,506.5199999999999,521.956,505.228,457.901,371.475,196.447,107.437,22.983,0.0,0.0,0.0,0.0,0.0,0.0,0.0,0.0,0.0,0.0,0.0,8.024,108.661,245.338,360.459,438.3860000000001,484.149,498.83600000000007,483.67300000000006,440.4940000000001,367.259,255.81,132.869,23.594999999999995,0.0,0.0,0.0,0.0,0.0,0.0,0.0,0.0,0.0,0.0,0.0,9.452,111.721,246.562,354.0,427.2339999999999,468.509,481.0210000000001,465.925,425.398,358.012,257.238,133.073,22.983,0.0,0.0,0.0,0.0,0.0,0.0,0.0,0.0,0.0,0.0,0.0,10.132,109.681,242.89,353.184,427.71,411.594,488.5679999999999,475.173,434.986,364.94700000000006,254.858,132.189,23.255,0.0,0.0,0.0,0.0,0.0,0.0,0.0,0.0,0.0,0.0,0.0,10.744,106.214,234.187,239.966,215.351,242.278,108.933,339.856,424.039,349.784,248.194,124.641,23.663,0.0,0.0,0.0,0.0,0.0,0.0,0.0,0.0,0.0,0.0,0.0,10.404,103.08499999999998,148.645,265.602,410.71,353.183,472.385,457.697,420.6379999999999,355.02,256.83,131.033,24.003,0.0,0.0,0.0,0.0,0.0,0.0,0.0,0.0,0.0,0.0,0.0,12.104,104.92199999999998,225.686,268.798,326.936,143.545,308.985,390.855,327.412,190.532,123.621,57.799,22.099,0.0,0.0,0.0,0.0,0.0,0.0,0.0,0.0,0.0,0.0,0.0,10.132,17.816,71.602,93.158,115.18899999999998,219.159,324.828,192.776,181.42,109.545,91.594,55.215,24.003,0.0,0.0,0.0,0.0,0.0,0.0,0.0,0.0,0.0,0.0,0.0,6.528,37.467,240.579,255.878,304.497,323.128,304.769,342.984,306.333,286.749,198.556,127.97299999999998,26.043,0.0,0.0,0.0,0.0,0.0,0.0,0.0,0.0,0.0,0.0,0.0,0.68,6.324,25.703,39.643,41.071,65.55,80.918,188.695,166.256,126.001,81.53,23.323,0.0,0.0,0.0,0.0,0.0,0.0,0.0,0.0,0.0,0.0,0.0,0.0,16.456,120.28900000000002,251.662,350.531,419.618,460.8929999999999,473.881,460.145,423.29,355.428,258.394,136.949,26.519,0.0,0.0,0.0,0.0,0.0,0.0,0.0,0.0,0.0,0.0,0.0,17.884,120.357,244.046,343.392,412.6820000000001,376.099,470.277,452.393,415.06200000000007,346.86,77.926,134.909,27.607,0.0,0.0,0.0,0.0,0.0,0.0,0.0,0.0,0.0,0.0,0.0,18.36,124.369,259.346,369.503,445.729,489.724,502.236,430.226,340.604,375.759,268.798,116.345,27.675,0.0,0.0,0.0,0.0,0.0,0.0,0.0,0.0,0.0,0.0,0.0,19.312,125.389,259.006,368.211,444.166,488.909,502.0319999999999,489.045,446.682,374.5350000000001,270.634,86.222,28.219,0.0,0.0,0.0,0.0,0.0,0.0,0.0,0.0,0.0,0.0,0.0,20.127,125.865,249.895,361.48,435.734,478.6410000000001,491.017,477.281,434.374,245.474,256.558,135.657,30.191000000000003,0.0,0.0,0.0,0.0,0.0,0.0,0.0,0.0,0.0,0.0,0.0,21.216,126.681,250.71,350.464,419.006,458.037,469.053,408.806,420.298,351.824,257.374,140.009,30.871,0.0,0.0,0.0,0.0,0.0,0.0,0.0,0.0,0.0,0.0,0.0,21.691,129.469,253.498,361.82,433.422,473.745,488.093,474.969,331.152,367.32700000000006,265.738,139.805,30.259,0.0,0.0,0.0,0.0,0.0,0.0,0.0,0.0,0.0,0.0,0.0,11.424,47.803,154.356,263.97,332.308,354.68,373.243,445.186,405.407,339.652,246.766,131.849,29.511,0.0,0.0,0.0,0.0,0.0,0.0,0.0,0.0,0.0,0.0,0.0,22.099,85.95,186.316,254.79,241.734,418.326,214.26300000000003,405.8140000000001,262.27,240.986,140.689,73.302,23.594999999999995,0.0,0.0,0.0,0.0,0.0,0.0,0.0,0.0,0.0,0.0,0.0,6.595999999999999,42.431,202.16,149.461,291.306,338.7,345.364,166.052,162.924,163.196,117.90900000000002,67.114,19.992,0.0,0.0,0.0,0.0,0.0,0.0,0.0,0.0,0.0,0.0,0.0,23.527000000000005,62.15100000000001,179.311,248.875,164.76,374.943,397.382,307.421,270.022,177.272,124.165,63.647,21.08,0.0,0.0,0.0,0.0,0.0,0.0,0.0,0.0,0.0,0.0,0.0,0.68,63.30700000000001,15.028,23.119,88.806,179.244,231.262,182.84800000000004,164.488,187.132,151.772,86.086,24.751,0.0,0.0,0.0,0.0,0.0,0.0,0.0,0.0,0.0,0.0,0.0,0.0,76.09,80.442,77.11,303.273,255.878,150.209,191.483,125.049,109.409,102.40600000000002,26.043,14.28,0.0,0.0,0.0,0.0,0.0,0.0,0.0,0.0,0.0,0.0,0.0,6.732000000000001,20.672,51.135,192.232,435.258,471.229,484.692,416.286,436.2099999999999,368.347,262.474,143.477,32.571,0.0,0.0,0.0,0.0,0.0,0.0,0.0,0.0,0.0,0.0,0.0,26.383000000000003,137.289,259.346,353.524,419.006,456.2010000000001,465.789,450.421,411.731,346.316,253.77,138.445,30.871,0.0,0.0,0.0,0.0,0.0,0.0,0.0,0.0,0.0,0.0,0.0,26.247,135.725,255.81,347.608,409.622,445.185,454.773,442.805,407.446,345.024,254.382,140.077,31.959,0.0,0.0,0.0,0.0,0.0,0.0,0.0,0.0,0.0,0.0,0.0,28.083,136.949,258.394,352.436,417.646,454.0930000000001,463.817,470.073,413.703,351.62,259.958,143.273,33.183,0.0,0.0,0.0,0.0,0.0,0.0,0.0,0.0,0.0,0.0,0.0,28.627,136.201,254.995,346.316,411.6619999999999,446.817,455.997,412.138,405.882,342.848,251.05000000000004,138.785,33.931,0.0,0.0,0.0,0.0,0.0,0.0,0.0,0.0,0.0,0.0,0.0,28.899,135.453,246.018,355.087,420.706,408.399,471.909,456.541,416.762,352.979,252.003,139.465,34.135,0.0,0.0,0.0,0.0,0.0,0.0,0.0,0.0,0.0,0.0,0.0,26.383000000000003,114.237,215.555,308.033,221.267,237.722,409.35,403.163,369.9789999999999,273.217,248.33,122.125,34.883,0.0,0.0,0.0,0.0,0.0,0.0,0.0,0.0,0.0,0.0,0.0,32.027,121.173,200.323,274.373,282.805,343.46,382.967,363.451,289.809,167.956,121.717,87.174,25.159,0.0,0.0,0.0,0.0,0.0,0.0,0.0,0.0,0.0,0.0,0.0,7.548,87.174,161.632,216.50700000000003,307.625,325.441,364.67500000000007,430.838,390.1070000000001,329.248,240.714,131.917,36.447,0.0,0.0,0.0,0.0,0.0,0.0,0.0,0.0,0.0,0.0,0.0,24.207,76.09,158.164,227.11500000000004,210.795,218.34200000000004,326.188,311.501,352.504,284.437,244.25,135.861,37.739,0.0,0.0,0.0,0.0,0.0,0.0,0.0,0.0,0.0,0.0,0.0,32.775,135.317,253.362,348.424,325.236,437.366,445.866,431.7219999999999,393.8469999999999,172.852,247.514,136.677,37.331,0.0,0.0,0.0,0.0,0.0,0.0,0.0,0.0,0.0,0.0,0.0,31.823,134.093,249.826,205.355,351.211,450.557,461.709,431.4500000000001,337.272,265.058,199.779,108.185,28.355,0.0,0.0,0.0,0.0,0.0,0.0,0.0,0.0,0.0,0.0,0.0,19.516,5.168,73.03,143.817,325.237,221.539,192.98,297.493,300.961,156.736,106.146,75.682,39.439,0.0,0.0,0.0,0.0,0.0,0.0,0.0,0.0,0.0,0.0,0.0,35.427,151.636,281.514,380.79100000000005,448.72100000000006,486.8,494.96,476.737,435.802,367.803,272.13,148.849,39.915,0.0,0.0,0.0,0.0,0.0,0.0,0.0,0.0,0.0,0.0,0.0,35.495,145.857,262.134,354.204,416.082,450.761,459.941,448.925,408.943,348.152,257.306,145.517,39.779,0.0,0.0,0.0,0.0,0.0,0.0,0.0,0.0,0.0,0.0,0.0,20.128,143.613,259.006,350.464,414.586,450.081,459.261,323.265,411.73,346.452,256.218,144.021,39.235,0.0,0.0,0.0,0.0,0.0,0.0,0.0,0.0,0.0,0.0,0.0,35.427,138.989,251.05000000000004,339.652,401.122,435.326,444.50500000000005,384.531,401.259,82.618,130.013,142.865,41.955,0.0,0.0,0.0,0.0,0.0,0.0,0.0,0.0,0.0,0.0,0.0,37.059,113.625,248.263,335.776,395.818,430.09,381.267,290.285,112.333,302.457,196.243,140.893,42.771,0.0,0.0,0.0,0.0,0.0,0.0,0.0,0.0,0.0,0.0,0.0,36.719,136.541,247.44600000000003,335.708,397.382,432.334,240.986,436.618,394.391,334.484,247.514,120.49299999999998,41.751,0.0,0.0,0.0,0.0,0.0,0.0,0.0,0.0,0.0,0.0,0.0,36.243,139.261,256.626,349.172,413.158,449.741,459.941,448.653,410.915,347.132,249.758,143.477,42.091,0.0,0.0,0.0,0.0,0.0,0.0,0.0,0.0,0.0,0.0,0.0,36.651,137.697,247.65,345.636,412.547,448.72100000000006,458.513,445.389,407.378,333.6,246.562,142.185,42.431,0.0,0.0,0.0,0.0,0.0,0.0,0.0,0.0,0.0,0.0,0.0,22.847,133.141,225.687,302.661,394.459,397.655,363.928,401.4630000000001,340.128,303.613,220.723,139.941,42.975,0.0,0.0,0.0,0.0,0.0,0.0,0.0,0.0,0.0,0.0,0.0,37.535,116.413,243.706,328.772,387.455,420.026,431.314,420.162,231.87500000000003,270.022,241.054,117.093,44.811,0.0,0.0,0.0,0.0,0.0,0.0,0.0,0.0,0.0,0.0,0.0,38.555,133.821,239.491,324.829,385.075,419.414,431.042,418.5299999999999,382.015,281.922,223.307,106.96200000000002,40.527,0.0,0.0,0.0,0.0,0.0,0.0,0.0,0.0,0.0,0.0,0.0,33.115,136.473,214.127,279.269,350.6,302.185,314.968,335.436,298.581,295.725,217.935,85.066,41.683,0.0,0.0,0.0,0.0,0.0,0.0,0.0,0.0,0.0,0.0,0.0,31.688,130.421,211.271,287.973,351.28,380.315,409.758,382.627,350.192,338.36,252.954,147.353,41.819,0.0,0.0,0.0,0.0,0.0,0.0,0.0,0.0,0.0,0.0,0.0,34.815,106.757,211.543,286.613,333.736,364.199,391.671,366.919,361.82,297.221,196.039,130.897,42.567,0.0,0.0,0.0,0.0,0.0,0.0,0.0,0.0,0.0,0.0,0.0,34.883,131.509,189.648,280.358,316.805,272.742,144.905,263.426,330.541,265.806,207.871,130.081,43.179,0.0,0.0,0.0,0.0,0.0,0.0,0.0,0.0,0.0,0.0,0.0,36.039,128.177,226.503,284.37,349.443,364.472,395.07,355.903,315.376,252.274,198.963,126.817,17.204,0.0,0.0,0.0,0.0,0.0,0.0,0.0,0.0,0.0,0.0,0.0,32.911,137.357,244.999,330.268,389.08699999999993,422.47399999999993,432.13,420.91,386.163,329.588,247.44600000000003,145.109,46.579,0.0,0.0,0.0,0.0,0.0,0.0,0.0,0.0,0.0,0.0,0.0,33.795,136.541,241.463,326.461,385.483,418.19,203.859,232.418,288.517,325.917,241.735,142.389,43.247,0.0,0.0,0.0,0.0,0.0,0.0,0.0,0.0,0.0,0.0,0.0,39.575,74.662,236.159,319.524,378.412,319.66,298.309,186.588,45.083,151.704,166.937,117.841,44.131,0.0,0.0,0.0,0.0,0.0,0.0,0.0,0.0,0.0,0.0,0.0,36.379,140.077,252.546,341.556,403.638,439.134,449.674,376.779,406.631,344.276,259.074,152.724,47.123000000000005,0.0,0.0,0.0,0.0,0.0,0.0,0.0,0.0,0.0,0.0,0.0,38.079,135.249,239.694,323.06,381.675,414.926,426.487,417.102,383.7149999999999,327.548,179.856,122.66899999999998,48.823,0.0,0.0,0.0,0.0,0.0,0.0,0.0,0.0,0.0,0.0,0.0,37.195,137.017,155.24,328.229,213.379,424.106,428.52600000000007,327.004,386.299,328.704,249.35,148.305,48.143,0.0,0.0,0.0,0.0,0.0,0.0,0.0,0.0,0.0,0.0,0.0,37.195,135.589,241.19,326.461,381.607,312.929,431.382,415.742,382.831,327.072,245.814,147.013,49.503,0.0,0.0,0.0,0.0,0.0,0.0,0.0,0.0,0.0,0.0,0.0,38.419,97.03400000000002,238.743,320.816,378.003,411.6619999999999,421.726,409.00999999999993,376.235,236.771,167.82,139.805,45.423,0.0,0.0,0.0,0.0,0.0,0.0,0.0,0.0,0.0,0.0,0.0,38.419,133.549,236.091,320.341,379.431,225.483,301.097,66.094,363.86,325.508,253.566,150.956,46.783,0.0,0.0,0.0,0.0,0.0,0.0,0.0,0.0,0.0,0.0,0.0,37.603,134.093,240.511,324.964,385.007,290.013,435.326,345.296,164.012,17.476,26.723,24.683000000000003,14.484,0.0,0.0,0.0,0.0,0.0,0.0,0.0,0.0,0.0,0.0,0.0,37.603,134.229,237.518,322.652,382.627,359.1,186.655,279.269,388.543,327.752,247.99,127.97299999999998,52.087,0.0,0.0,0.0,0.0,0.0,0.0,0.0,0.0,0.0,0.0,0.0,21.42,131.305,233.371,257.782,378.955,266.35,167.684,253.226,323.4,214.127,58.615,3.74,48.211000000000006,0.0,0.0,0.0,0.0,0.0,0.0,0.0,0.0,0.0,0.0,0.0,37.603,132.665,238.13,324.692,379.159,297.765,212.427,313.813,327.888,328.024,240.57800000000003,63.783,28.967,0.0,0.0,0.0,0.0,0.0,0.0,0.0,0.0,0.0,0.0,0.0,37.535,133.073,237.178,322.312,382.219,278.997,97.03400000000002,371.95200000000006,337.001,246.222,29.171,51.135,36.991,0.0,0.0,0.0,0.0,0.0,0.0,0.0,0.0,0.0,0.0,0.0,23.187,83.91,70.038,76.226,126.817,180.467,349.104,306.265,92.75,17.68,79.014,57.32299999999999,34.543,0.0,0.0,0.0,0.0,0.0,0.0,0.0,0.0,0.0,0.0,0.0,36.583,132.869,237.654,324.42,377.935,339.04,426.078,413.09,379.431,324.692,251.93400000000003,151.976,49.843,0.476,0.0,0.0,0.0,0.0,0.0,0.0,0.0,0.0,0.0,0.0,32.163,132.869,241.734,330.269,394.323,314.221,393.371,301.505,354.612,317.281,255.47,150.48,55.147,0.476,0.0,0.0,0.0,0.0,0.0,0.0,0.0,0.0,0.0,0.0,29.919,131.985,235.41,296.813,378.207,365.083,349.784,391.195,269.07,280.969,251.866,153.2,49.77499999999999,0.544,0.0,0.0,0.0,0.0,0.0,0.0,0.0,0.0,0.0,0.0,35.699,136.813,245.20200000000003,329.928,352.503,371.27199999999993,455.3179999999999,440.086,406.087,349.104,258.054,157.008,48.891,1.02,0.0,0.0,0.0,0.0,0.0,0.0,0.0,0.0,0.0,0.0,31.279,110.497,199.235,289.198,340.332,370.455,391.331,417.102,382.287,328.296,250.098,152.18,50.455,0.408,0.0,0.0,0.0,0.0,0.0,0.0,0.0,0.0,0.0,0.0,33.183,122.601,197.807,190.872,162.04,264.514,361.343,264.513,335.232,271.11,211.407,52.903,43.315,0.0,0.0,0.0,0.0,0.0,0.0,0.0,0.0,0.0,0.0,0.0,32.163,101.522,239.762,117.501,43.519,31.891,130.421,245.20200000000003,415.87799999999993,300.621,193.999,138.241,55.895,1.088,0.0,0.0,0.0,0.0,0.0,0.0,0.0,0.0,0.0,0.0,0.0,30.599,122.53300000000002,187.948,339.108,393.983,451.3730000000001,375.759,331.492,181.964,226.095,117.229,50.251,0.544,0.0,0.0,0.0,0.0,0.0,0.0,0.0,0.0,0.0,0.0,30.259,130.965,198.895,320.681,378.479,413.294,377.323,358.216,385.8910000000001,326.936,249.486,153.132,51.883,1.02,0.0,0.0,0.0,0.0,0.0,0.0,0.0,0.0,0.0,0.0,35.155,129.673,234.663,319.797,381.131,419.074,430.362,253.43,394.051,333.464,241.87,155.988,51.951,1.632,0.0,0.0,0.0,0.0,0.0,0.0,0.0,0.0,0.0,0.0,32.775,129.061,236.294,278.182,212.699,58.285,152.651,152.651,152.651,93.273,84.658,77.57,52.42699999999999,1.632,0.0,0.0,0.0,0.0,0.0,0.0,0.0,0.0,0.0,0.0,34.067,0.0,51.541,52.033,56.939,58.35399999999999,74.724,63.771,49.979,124.467,112.74899999999998,104.308,36.855,0.0,0.0,0.0,0.0,0.0,0.0,0.0,0.0,0.0,0.0,0.0,29.239,127.497,234.11900000000003,311.325,317.304,90.506,81.054,77.45,144.021,187.132,199.711,152.045,52.35900000000001,0.0,0.0,0.0,0.0,0.0,0.0,0.0,0.0,0.0,0.0,0.0,20.807,116.821,223.783,320.612,270.77,117.501,315.445,326.188,258.054,264.854,128.109,154.288,29.443,0.0,0.0,0.0,0.0,0.0,0.0,0.0,0.0,0.0,0.0,0.0,36.515,73.302,188.152,250.03,14.212,32.775,46.783,100.638,213.651,320.816,205.967,7.071999999999999,52.971,0.0,0.0,0.0,0.0,0.0,0.0,0.0,0.0,0.0,0.0,0.0,31.823,126.001,229.767,316.057,374.263,425.602,437.90899999999993,409.4189999999999,377.731,279.677,245.95,150.549,58.34300000000001,0.0,0.0,0.0,0.0,0.0,0.0,0.0,0.0,0.0,0.0,0.0,33.523,121.241,220.24700000000004,311.909,377.867,327.412,357.399,421.59,385.483,326.596,240.102,147.489,50.523,0.0,0.0,0.0,0.0,0.0,0.0,0.0,0.0,0.0,0.0,0.0,33.047,122.261,222.355,306.536,328.364,376.915,363.316,358.692,322.177,280.562,216.371,146.741,55.147,0.0,0.0,0.0,0.0,0.0,0.0,0.0,0.0,0.0,0.0,0.0,31.687,119.881,217.595,299.737,363.5880000000001,304.565,254.11,408.33,62.219,98.326,110.497,152.86,51.33899999999999,0.0,0.0,0.0,0.0,0.0,0.0,0.0,0.0,0.0,0.0,0.0,31.891,120.49299999999998,219.567,302.185,362.703,398.879,270.362,253.77,379.431,321.7,245.814,152.996,58.275,0.408,0.0,0.0,0.0,0.0,0.0,0.0,0.0,0.0,0.0,0.0,30.055,122.39700000000002,225.891,312.317,373.924,409.418,381.131,360.391,221.063,286.817,228.407,144.089,57.051,0.408,0.0,0.0,0.0,0.0,0.0,0.0,0.0,0.0,0.0,0.0,28.899,116.005,183.052,277.297,342.644,329.928,340.197,247.787,301.641,254.11,221.947,143.885,19.856,0.0,0.0,0.0,0.0,0.0,0.0,0.0,0.0,0.0,0.0,0.0,7.344000000000001,38.963,109.273,126.545,258.666,360.8,336.661,334.824,304.429,233.711,162.448,123.893,47.667,0.0,0.0,0.0,0.0,0.0,0.0,0.0,0.0,0.0,0.0,0.0,29.783,76.09,117.841,203.995,309.801,312.249,291.577,363.723,359.235,268.934,213.719,110.498,39.235,0.0,0.0,0.0,0.0,0.0,0.0,0.0,0.0,0.0,0.0,0.0,25.431000000000004,116.277,213.787,297.493,271.654,315.716,137.289,390.378,346.52,251.662,64.462,28.423,0.0,0.0,0.0,0.0,0.0,0.0,0.0,0.0,0.0,0.0,0.0,0.0,29.579000000000004,116.413,213.991,300.077,366.171,225.347,368.212,371.816,237.043,296.133,193.048,128.993,37.059,0.0,0.0,0.0,0.0,0.0,0.0,0.0,0.0,0.0,0.0,0.0,27.811,118.045,222.62700000000004,273.489,317.281,335.028,273.422,259.754,323.264,328.092,222.015,144.769,56.643,0.408,0.0,0.0,0.0,0.0,0.0,0.0,0.0,0.0,0.0,0.0,28.627,116.753,218.88700000000003,306.197,369.095,406.766,370.048,416.422,383.5110000000001,330.336,251.39,153.336,52.019000000000005,0.0,0.0,0.0,0.0,0.0,0.0,0.0,0.0,0.0,0.0,0.0,28.151,116.277,191.28,263.97,245.95,101.182,66.91,164.76,323.945,237.382,195.359,152.316,41.887,0.0,0.0,0.0,0.0,0.0,0.0,0.0,0.0,0.0,0.0,0.0,24.207,81.938,222.831,126.749,300.485,298.717,70.31,102.27,195.155,189.444,151.161,84.25,16.456,0.0,0.0,0.0,0.0,0.0,0.0,0.0,0.0,0.0,0.0,0.0,12.444,86.63,31.415,84.318,101.182,191.959,200.527,222.62700000000004,235.275,237.858,29.919,75.274,46.851,0.0,0.0,0.0,0.0,0.0,0.0,0.0,0.0,0.0,0.0,0.0,9.112,68.882,103.97,173.532,396.8380000000001,333.464,434.782,287.157,180.264,315.104,256.218,155.308,54.127,0.0,0.0,0.0,0.0,0.0,0.0,0.0,0.0,0.0,0.0,0.0,22.779000000000003,118.997,231.943,333.736,401.4630000000001,176.524,366.716,431.654,396.8380000000001,343.052,261.318,118.521,49.639,0.0,0.0,0.0,0.0,0.0,0.0,0.0,0.0,0.0,0.0,0.0,24.751,117.093,224.599,313.677,376.099,413.7699999999999,297.221,420.23,260.434,334.281,252.138,152.793,55.07899999999999,0.0,0.0,0.0,0.0,0.0,0.0,0.0,0.0,0.0,0.0,0.0,26.111,113.965,185.704,278.997,328.704,367.395,416.83,406.766,187.2,244.658,247.719,150.277,47.939,0.0,0.0,0.0,0.0,0.0,0.0,0.0,0.0,0.0,0.0,0.0,25.159,112.061,214.39900000000003,302.592,365.832,403.4340000000001,416.422,413.022,381.131,327.957,249.826,150.752,53.51500000000001,0.0,0.0,0.0,0.0,0.0,0.0,0.0,0.0,0.0,0.0,0.0,22.439,112.87699999999998,221.267,311.568,278.114,150.005,433.966,419.074,402.55099999999993,346.928,264.31,155.988,49.843,0.0,0.0,0.0,0.0,0.0,0.0,0.0,0.0,0.0,0.0,0.0,20.196,112.401,206.375,215.759,100.57,256.626,369.164,334.348,276.55,275.122,187.132,126.545,49.367,0.0,0.0,0.0,0.0,0.0,0.0,0.0,0.0,0.0,0.0,0.0,18.836,91.934,190.328,285.593,315.377,368.008,426.758,357.535,329.249,304.429,249.486,130.285,46.919,0.0,0.0,0.0,0.0,0.0,0.0,0.0,0.0,0.0,0.0,0.0,19.516,111.993,223.103,313.133,376.711,414.042,298.377,54.059,186.791,319.728,263.698,136.609,48.211000000000006,0.0,0.0,0.0,0.0,0.0,0.0,0.0,0.0,0.0,0.0,0.0,21.827,88.67,183.8,241.258,331.696,209.91100000000003,173.396,245.61,272.402,231.942,154.152,69.631,28.219,0.0,0.0,0.0,0.0,0.0,0.0,0.0,0.0,0.0,0.0,0.0,10.744,76.294,83.774,88.33,254.11,216.779,221.607,332.988,313.473,298.853,176.252,73.642,48.075,0.0,0.0,0.0,0.0,0.0,0.0,0.0,0.0,0.0,0.0,0.0,20.264,109.613,161.224,160.952,381.0630000000001,311.841,309.733,423.29,388.543,335.164,177.612,112.80899999999998,15.640000000000002,0.0,0.0,0.0,0.0,0.0,0.0,0.0,0.0,0.0,0.0,0.0,19.856,109.681,216.983,307.012,370.863,407.855,421.046,411.458,151.976,333.056,247.65,147.965,48.007,0.0,0.0,0.0,0.0,0.0,0.0,0.0,0.0,0.0,0.0,0.0,18.36,108.525,217.187,306.401,369.299,406.63,322.449,429.546,379.431,327.209,248.942,147.761,41.343,0.0,0.0,0.0,0.0,0.0,0.0,0.0,0.0,0.0,0.0,0.0,17.136,85.542,216.64300000000003,307.149,372.0870000000001,408.943,421.998,412.411,380.315,242.21,246.834,144.429,47.259,0.0,0.0,0.0,0.0,0.0,0.0,0.0,0.0,0.0,0.0,0.0,10.268,57.527,185.364,174.416,267.641,332.716,141.845,130.149,167.684,287.701,253.43,147.217,48.143,0.0,0.0,0.0,0.0,0.0,0.0,0.0,0.0,0.0,0.0,0.0,17.816,106.078,216.711,309.8,372.088,325.849,429.546,296.133,227.25100000000003,266.758,248.807,145.108,42.295,0.0,0.0,0.0,0.0,0.0,0.0,0.0,0.0,0.0,0.0,0.0,17.952,106.01,217.187,308.44,372.835,318.233,316.328,201.343,140.621,167.344,217.391,142.796,45.831,0.0,0.0,0.0,0.0,0.0,0.0,0.0,0.0,0.0,0.0,0.0,18.36,104.582,212.767,304.565,372.155,410.575,298.717,418.191,270.634,300.077,179.516,86.698,31.075,0.0,0.0,0.0,0.0,0.0,0.0,0.0,0.0,0.0,0.0,0.0,18.02,104.446,213.379,304.837,369.9789999999999,347.132,359.779,339.72,308.916,326.121,243.706,141.913,44.607,0.0,0.0,0.0,0.0,0.0,0.0,0.0,0.0,0.0,0.0,0.0,15.096,88.806,198.827,299.601,319.321,352.435,290.557,414.7900000000001,378.479,322.041,237.383,130.557,35.903,0.0,0.0,0.0,0.0,0.0,0.0,0.0,0.0,0.0,0.0,0.0,9.044,79.762,158.572,295.997,364.812,406.427,423.63,351.756,362.70400000000006,300.961,192.436,125.52500000000002,0.0,0.0,0.0,0.0,0.0,0.0,0.0,0.0,0.0,0.0,0.0,0.0,14.008,76.974,168.772,242.21,294.841,314.016,280.221,92.002,155.376,93.77,163.264,138.513,42.771,0.0,0.0,0.0,0.0,0.0,0.0,0.0,0.0,0.0,0.0,0.0,16.592,104.514,217.391,312.521,379.635,334.076,332.852,252.478,396.091,334.689,250.642,143.749,38.827,0.0,0.0,0.0,0.0,0.0,0.0,0.0,0.0,0.0,0.0,0.0,15.096,104.173,218.479,313.201,262.95,273.013,455.385,441.717,391.671,335.3,252.41,144.293,37.535,0.0,0.0,0.0,0.0,0.0,0.0,0.0,0.0,0.0,0.0,0.0,14.62,102.474,215.623,308.101,373.65100000000007,412.07,427.098,371.747,305.38,266.893,158.641,119.813,38.895,0.0,0.0,0.0,0.0,0.0,0.0,0.0,0.0,0.0,0.0,0.0,14.688000000000002,103.426,217.866,311.773,378.41100000000006,416.8980000000001,429.886,420.094,388.815,331.969,247.786,140.009,36.855,0.0,0.0,0.0,0.0,0.0,0.0,0.0,0.0,0.0,0.0,0.0,13.804,102.882,218.003,312.997,378.275,416.286,358.555,180.944,151.432,335.301,228.882,122.873,31.143,0.0,0.0,0.0,0.0,0.0,0.0,0.0,0.0,0.0,0.0,0.0,13.668,101.86199999999998,216.915,312.113,378.003,190.192,403.231,423.97,84.794,85.406,194.203,104.65000000000002,33.387,0.0,0.0,0.0,0.0,0.0,0.0,0.0,0.0,0.0,0.0,0.0,13.124,101.998,218.343,313.541,393.167,437.366,367.123,281.038,283.146,270.022,106.825,140.825,33.931,0.0,0.0,0.0,0.0,0.0,0.0,0.0,0.0,0.0,0.0,0.0,13.26,67.522,87.446,161.904,217.187,282.805,222.219,153.405,111.313,28.627,128.109,1.02,14.143999999999998,0.0,0.0,0.0,0.0,0.0,0.0,0.0,0.0,0.0,0.0,0.0,4.624,21.555,112.741,123.145,191.008,209.027,357.332,238.606,330.812,139.805,70.378,28.219,8.5,0.0,0.0,0.0,0.0,0.0,0.0,0.0,0.0,0.0,0.0,0.0,9.724,58.955,87.174,175.504,306.945,341.216,157.552,292.461,59.091,332.512,237.042,90.573,32.503,0.0,0.0,0.0,0.0,0.0,0.0,0.0,0.0,0.0,0.0,0.0,7.956000000000001,68.202,134.909,286.206,371.067,225.823,355.767,266.485,239.082,327.208,231.806,113.149,25.771,0.0,0.0,0.0,0.0,0.0,0.0,0.0,0.0,0.0,0.0,0.0,11.967999999999998,98.666,213.719,309.733,377.731,417.102,432.402,140.553,336.252,324.692,236.634,108.797,27.879000000000005,0.0,0.0,0.0,0.0,0.0,0.0,0.0,0.0,0.0,0.0,0.0,11.9,99.34600000000002,217.255,315.921,381.879,312.929,335.709,208.279,42.023,76.702,140.825,123.757,28.015,0.0,0.0,0.0,0.0,0.0,0.0,0.0,0.0,0.0,0.0,0.0,4.012,41.615,130.693,145.652,71.398,36.243,65.618,94.314,122.193,121.513,134.297,120.15300000000002,26.791,0.0,0.0,0.0,0.0,0.0,0.0,0.0,0.0,0.0,0.0,0.0,10.948,47.803,128.857,203.248,255.53800000000004,304.429,277.842,132.733,232.962,205.69600000000003,146.265,73.642,16.116,0.0,0.0,0.0,0.0,0.0,0.0,0.0,0.0,0.0,0.0,0.0,2.856,57.731,133.957,142.525,79.83,189.71600000000004,186.248,261.794,270.225,311.025,194.203,99.754,14.484,0.0,0.0,0.0,0.0,0.0,0.0,0.0,0.0,0.0,0.0,0.0,9.384,65.618,152.656,203.315,276.006,286.069,371.203,351.484,324.896,285.457,193.591,82.822,17.272,0.0,0.0,0.0,0.0,0.0,0.0,0.0,0.0,0.0,0.0,0.0,10.404,100.774,224.259,327.14,398.878,440.697,379.907,363.995,403.911,287.905,237.994,111.993,22.507,0.0,0.0,0.0,0.0,0.0,0.0,0.0,0.0,0.0,0.0,0.0,9.52,97.578,215.963,315.241,218.88700000000003,428.322,321.497,357.536,387.727,240.374,31.619,81.19,21.895,0.0,0.0,0.0,0.0,0.0,0.0,0.0,0.0,0.0,0.0,0.0,8.296,96.15,172.784,309.869,376.03100000000006,207.871,120.28900000000002,266.758,384.735,318.505,229.563,48.61900000000001,21.487,0.0,0.0,0.0,0.0,0.0,0.0,0.0,0.0,0.0,0.0,0.0,7.344000000000001,95.674,210.863,315.784,387.6590000000001,429.0700000000001,444.438,433.5580000000001,395.003,318.437,227.455,115.869,20.128,0.0,0.0,0.0,0.0,0.0,0.0,0.0,0.0,0.0,0.0,0.0,0.0,0.544,150.344,245.61,357.059,395.41,410.098,395.886,308.237,213.923,127.429,59.295,15.028,0.0,0.0,0.0,0.0,0.0,0.0,0.0,0.0,0.0,0.0,0.0,4.828,88.942,195.631,291.714,208.823,317.553,284.505,409.69,366.987,304.157,217.255,109.409,18.292,0.0,0.0,0.0,0.0,0.0,0.0,0.0,0.0,0.0,0.0,0.0,7.412,91.866,206.919,303.612,367.26,342.304,421.794,407.583,372.428,309.461,219.907,110.021,17.952,0.0,0.0,0.0,0.0,0.0,0.0,0.0,0.0,0.0,0.0,0.0,7.344000000000001,93.634,209.027,306.877,375.284,313.609,262.61,353.524,377.119,310.276,218.955,91.662,17.272,0.0,0.0,0.0,0.0,0.0,0.0,0.0,0.0,0.0,0.0,0.0,6.8,92.41,207.668,305.381,373.787,412.478,225.00700000000003,416.082,373.719,55.283,226.571,109.546,15.98,0.0,0.0,0.0,0.0,0.0,0.0,0.0,0.0,0.0,0.0,0.0,6.256000000000001,92.274,209.027,245.95,302.321,227.93,333.464,301.165,304.633,312.249,218.071,106.078,13.328,0.0,0.0,0.0,0.0,0.0,0.0,0.0,0.0,0.0,0.0,0.0,6.528,79.014,170.268,262.61,176.388,257.238,249.758,321.496,164.352,101.998,119.269,54.195,6.052,0.0,0.0,0.0,0.0,0.0,0.0,0.0,0.0,0.0,0.0,0.0,6.256000000000001,82.89,183.868,227.25100000000003,306.129,129.537,47.803,107.641,273.422,252.818,116.073,69.426,6.120000000000001,0.0,0.0,0.0,0.0,0.0,0.0,0.0,0.0,0.0,0.0,0.0,4.352,89.486,153.744,195.291,280.017,312.724,191.348,57.459,66.434,195.971,142.729,14.824,0.0,0.0,0.0,0.0,0.0,0.0,0.0,0.0,0.0,0.0,0.0,0.0,0.0,0.612,19.448,151.024,135.113,207.328,242.89,331.492,318.436,245.61,165.712,69.698,7.14,0.0,0.0,0.0,0.0,0.0,0.0,0.0,0.0,0.0,0.0,0.0,2.856,36.583,178.972,262.134,250.506,265.194,259.142,203.247,97.10200000000002,124.369,75.954,60.315,3.332,0.0,0.0,0.0,0.0,0.0,0.0,0.0,0.0,0.0,0.0,0.0,0.0,0.0,60.79099999999999,21.148,122.601,27.879000000000005,47.667,308.849,302.933,285.865,180.672,96.422,8.568,0.0,0.0,0.0,0.0,0.0,0.0,0.0,0.0,0.0,0.0,0.0,0.612,62.015,175.572,224.939,296.065,253.634,355.088,269.75,256.762,223.783,186.452,45.559,1.632,0.0,0.0,0.0,0.0,0.0,0.0,0.0,0.0,0.0,0.0,0.0,1.8360000000000003,85.066,201.684,251.79800000000003,258.598,194.06800000000004,240.919,238.19800000000004,261.182,233.235,118.793,76.974,2.72,0.0,0.0,0.0,0.0,0.0,0.0,0.0,0.0,0.0,0.0,0.0,0.0,0.0,49.435,73.71,188.628,229.63100000000003,280.426,312.385,234.867,310.616,24.207,15.164,0.0,0.0,0.0,0.0,0.0,0.0,0.0,0.0,0.0,0.0,0.0,0.0,2.9239999999999995,87.038,88.398,309.257,373.379,410.3020000000001,421.182,296.814,367.667,208.823,149.325,64.055,3.944,0.0,0.0,0.0,0.0,0.0,0.0,0.0,0.0,0.0,0.0,0.0,2.244,86.902,204.335,300.893,357.264,321.7,412.07,392.283,354.544,165.78,165.712,71.194,1.904,0.0,0.0,0.0,0.0,0.0,0.0,0.0,0.0,0.0,0.0,0.0,0.816,85.066,201.139,297.085,363.791,401.054,308.441,203.995,128.653,189.648,196.17500000000004,83.298,1.8360000000000003,0.0,0.0,0.0,0.0,0.0,0.0,0.0,0.0,0.0,0.0,0.0,0.0,84.454,202.703,301.709,371.135,255.334,317.008,26.383000000000003,7.48,108.865,110.157,33.727,0.0,0.0,0.0,0.0,0.0,0.0,0.0,0.0,0.0,0.0,0.0,0.0,0.0,80.578,117.229,173.6,375.419,305.245,162.108,161.36,155.444,231.399,111.449,57.051,0.0,0.0,0.0,0.0,0.0,0.0,0.0,0.0,0.0,0.0,0.0,0.0,0.0,78.334,0.476,318.777,298.581,33.183,110.36100000000002,216.031,186.452,196.855,147.557,6.528,0.0,0.0,0.0,0.0,0.0,0.0,0.0,0.0,0.0,0.0,0.0,0.0,0.0,95.334,225.279,327.412,411.866,453.073,464.225,447.973,401.59800000000007,324.693,210.931,86.154,0.0,0.0,0.0,0.0,0.0,0.0,0.0,0.0,0.0,0.0,0.0,0.0,0.0,93.226,222.62700000000004,324.285,390.787,429.274,438.657,419.754,376.5750000000001,306.401,203.451,81.53,0.0,0.0,0.0,0.0,0.0,0.0,0.0,0.0,0.0,0.0,0.0,0.0,0.0,86.902,207.939,314.9,371.475,407.378,362.568,345.5,262.746,210.183,164.828,71.67,0.0,0.0,0.0,0.0,0.0,0.0,0.0,0.0,0.0,0.0,0.0,0.0,0.0,81.19,198.963,304.565,376.507,401.394,410.778,392.215,348.9,279.745,181.692,69.97,0.0,0.0,0.0,0.0,0.0,0.0,0.0,0.0,0.0,0.0,0.0,0.0,0.0,79.966,198.963,296.814,363.995,399.1499999999999,409.078,177.884,313.676,185.22800000000004,180.536,63.987,0.0,0.0,0.0,0.0,0.0,0.0,0.0,0.0,0.0,0.0,0.0,0.0,0.0,78.334,133.957,295.793,362.84,271.11,332.921,286.205,317.689,146.945,147.625,63.579,0.0,0.0,0.0,0.0,0.0,0.0,0.0,0.0,0.0,0.0,0.0,0.0,0.0,86.698,213.311,314.425,385.143,423.902,433.8980000000001,431.586,385.415,309.053,196.107,73.098,0.0,0.0,0.0,0.0,0.0,0.0,0.0,0.0,0.0,0.0,0.0,0.0,0.0,90.098,219.839,322.38,393.302,431.79,440.425,421.114,375.895,302.661,196.311,54.331,0.0,0.0,0.0,0.0,0.0,0.0,0.0,0.0,0.0,0.0,0.0,0.0,0.0,86.834,212.699,313.201,390.991,430.566,439.405,417.44200000000006,371.54300000000006,294.705,187.2,64.938,0.0,0.0,0.0,0.0,0.0,0.0,0.0,0.0,0.0,0.0,0.0,0.0,0.0,84.318,126.545,319.593,390.3790000000001,446.273,457.629,437.773,392.283,311.84,193.727,68.746,0.0,0.0,0.0,0.0,0.0,0.0,0.0,0.0,0.0,0.0,0.0,0.0,0.0,87.038,216.847,319.66,387.115,425.602,433.762,413.974,368.1429999999999,292.189,186.18,64.53,0.0,0.0,0.0,0.0,0.0,0.0,0.0,0.0,0.0,0.0,0.0,0.0,0.0,50.86300000000001,124.165,164.624,289.945,324.148,269.817,262.066,271.382,216.983,138.921,45.559,0.0,0.0,0.0,0.0,0.0,0.0,0.0,0.0,0.0,0.0,0.0,0.0,0.0,73.234,78.13,296.813,177.952,423.358,300.417,273.353,370.2509999999999,288.653,175.096,56.711,0.0,0.0,0.0,0.0,0.0,0.0,0.0,0.0,0.0,0.0,0.0,0.0,0.0,41.547,112.537,141.301,187.132,125.933,124.845,169.18,145.585,141.573,48.55100000000001,25.295,0.0,0.0,0.0,0.0,0.0,0.0,0.0,0.0,0.0,0.0,0.0,0.0,0.0,24.275,38.079,86.222,201.616,250.574,318.028,345.636,263.426,224.259,117.433,41.207,0.0,0.0,0.0,0.0,0.0,0.0,0.0,0.0,0.0,0.0,0.0,0.0,0.0,53.991,105.194,202.499,273.558,211.883,288.381,277.706,175.98,155.24,93.43,29.443,0.0,0.0,0.0,0.0,0.0,0.0,0.0,0.0,0.0,0.0,0.0,0.0,0.0,73.982,195.699,295.861,363.179,400.03399999999993,77.858,117.093,352.64,269.682,165.44,49.095,0.0,0.0,0.0,0.0,0.0,0.0,0.0,0.0,0.0,0.0,0.0,0.0,0.0,74.594,197.05900000000003,298.037,364.064,400.579,407.855,388.543,262.134,264.854,157.144,45.219,0.0,0.0,0.0,0.0,0.0,0.0,0.0,0.0,0.0,0.0,0.0,0.0,0.0,62.967000000000006,172.92,230.855,210.387,262.814,179.312,237.654,175.436,129.469,104.514,46.783,0.0,0.0,0.0,0.0,0.0,0.0,0.0,0.0,0.0,0.0,0.0,0.0,0.0,11.492,57.187,114.237,321.972,415.606,421.522,400.71400000000006,353.592,273.761,165.848,46.715,0.0,0.0,0.0,0.0,0.0,0.0,0.0,0.0,0.0,0.0,0.0,0.0,0.0,3.0600000000000005,94.654,180.876,374.9440000000001,329.044,330.608,399.966,347.812,267.642,158.98,43.043,0.0,0.0,0.0,0.0,0.0,0.0,0.0,0.0,0.0,0.0,0.0,0.0,0.0,71.194,196.039,298.922,367.735,400.578,403.57,390.311,332.785,250.03,145.721,36.923,0.0,0.0,0.0,0.0,0.0,0.0,0.0,0.0,0.0,0.0,0.0,0.0,0.0,69.494,191.82400000000004,291.645,359.44,396.431,403.571,384.327,335.64,256.014,148.849,37.807,0.0,0.0,0.0,0.0,0.0,0.0,0.0,0.0,0.0,0.0,0.0,0.0,0.0,67.386,188.084,297.493,371.067,410.846,418.666,398.6060000000001,188.083,267.641,150.888,37.739,0.0,0.0,0.0,0.0,0.0,0.0,0.0,0.0,0.0,0.0,0.0,0.0,0.0,66.91,188.968,298.377,373.311,397.111,404.183,306.605,229.35900000000004,224.259,114.169,30.055,0.0,0.0,0.0,0.0,0.0,0.0,0.0,0.0,0.0,0.0,0.0,0.0,0.0,57.187,173.736,289.809,341.012,339.04,332.852,383.7149999999999,246.902,253.022,96.286,28.491,0.0,0.0,0.0,0.0,0.0,0.0,0.0,0.0,0.0,0.0,0.0,0.0,0.0,73.574,209.843,322.04,398.811,423.97,431.042,340.196,358.42,273.762,160.34,38.147,0.0,0.0,0.0,0.0,0.0,0.0,0.0,0.0,0.0,0.0,0.0,0.0,0.0,24.547,30.327000000000005,180.672,177.884,255.606,417.44200000000006,392.4870000000001,342.78,261.93,150.752,34.679,0.0,0.0,0.0,0.0,0.0,0.0,0.0,0.0,0.0,0.0,0.0,0.0,0.0,66.774,193.387,241.666,334.552,374.059,352.096,254.11,120.765,139.397,30.803,8.568,0.0,0.0,0.0,0.0,0.0,0.0,0.0,0.0,0.0,0.0,0.0,0.0,0.0,67.046,195.087,301.097,369.843,407.854,415.06200000000007,394.459,344.548,263.63,152.656,34.543,0.0,0.0,0.0,0.0,0.0,0.0,0.0,0.0,0.0,0.0,0.0,0.0,0.0,70.718,204.063,310.413,390.447,426.214,432.266,410.914,351.144,254.926,143.205,30.395,0.0,0.0,0.0,0.0,0.0,0.0,0.0,0.0,0.0,0.0,0.0,0.0,0.0,67.182,196.855,303.205,385.143,425.806,433.218,408.806,355.292,269.342,149.461,33.115,0.0,0.0,0.0,0.0,0.0,0.0,0.0,0.0,0.0,0.0,0.0,0.0,0.0,35.155,64.734,301.165,375.963,415.33400000000006,422.27,399.695,346.044,254.11,142.797,29.783,0.0,0.0,0.0,0.0,0.0,0.0,0.0,0.0,0.0,0.0,0.0,0.0,0.0,62.355,188.9,291.169,368.891,393.371,131.985,385.755,325.032,164.42,132.393,24.547,0.0,0.0,0.0,0.0,0.0,0.0,0.0,0.0,0.0,0.0,0.0,0.0,0.0,59.703,186.111,291.849,366.239,405.135,411.866,387.931,337.136,243.094,135.521,26.383000000000003,0.0,0.0,0.0,0.0,0.0,0.0,0.0,0.0,0.0,0.0,0.0,0.0,0.0,56.711,181.691,286.409,359.848,258.054,204.199,299.805,208.619,235.683,94.314,13.124,0.0,0.0,0.0,0.0,0.0,0.0,0.0,0.0,0.0,0.0,0.0,0.0,0.0,55.283,180.128,227.591,366.987,404.999,412.6820000000001,388.747,335.912,252.546,138.309,25.567,0.0,0.0,0.0,0.0,0.0,0.0,0.0,0.0,0.0,0.0,0.0,0.0,0.0,31.891,107.845,185.908,227.795,285.933,339.108,309.733,263.222,184.616,54.331,6.324,0.0,0.0,0.0,0.0,0.0,0.0,0.0,0.0,0.0,0.0,0.0,0.0,0.0,3.808,43.043,59.295,112.537,129.741,129.605,129.877,91.866,60.927,32.571,25.567,0.0,0.0,0.0,0.0,0.0,0.0,0.0,0.0,0.0,0.0,0.0,0.0,0.0,61.81100000000001,201.139,325.984,407.855,453.4810000000001,462.865,436.55,374.263,278.998,148.849,27.539,0.0,0.0,0.0,0.0,0.0,0.0,0.0,0.0,0.0,0.0,0.0,0.0,0.0,61.335,203.179,325.236,406.76700000000005,450.762,458.853,431.654,369.775,275.734,145.789,25.839,0.0,0.0,0.0,0.0,0.0,0.0,0.0,0.0,0.0,0.0,0.0,0.0,0.0,55.283,185.22800000000004,299.057,374.1950000000001,411.798,419.482,399.219,341.284,253.77,130.081,18.904,0.0,0.0,0.0,0.0,0.0,0.0,0.0,0.0,0.0,0.0,0.0,0.0,0.0,7.48,162.584,67.522,363.11099999999993,403.299,414.314,397.654,340.468,249.283,128.381,19.516,0.0,0.0,0.0,0.0,0.0,0.0,0.0,0.0,0.0,0.0,0.0,0.0,0.0,48.211000000000006,171.696,277.433,357.059,404.455,409.554,384.803,327.073,239.694,122.73699999999998,16.592,0.0,0.0,0.0,0.0,0.0,0.0,0.0,0.0,0.0,0.0,0.0,0.0,0.0,45.967000000000006,165.916,270.158,339.516,377.391,382.627,361.616,310.684,228.611,119.677,15.640000000000002,0.0,0.0,0.0,0.0,0.0,0.0,0.0,0.0,0.0,0.0,0.0,0.0,0.0,45.491,164.284,268.118,348.628,387.523,395.615,162.652,113.149,227.659,113.693,9.18,0.0,0.0,0.0,0.0,0.0,0.0,0.0,0.0,0.0,0.0,0.0,0.0,0.0,46.103,174.212,288.246,365.967,394.934,401.938,377.936,324.624,236.974,121.785,15.096,0.0,0.0,0.0,0.0,0.0,0.0,0.0,0.0,0.0,0.0,0.0,0.0,0.0,40.663,160.136,269.817,234.731,256.49,403.0940000000001,252.546,338.7,238.674,122.805,15.436,0.0,0.0,0.0,0.0,0.0,0.0,0.0,0.0,0.0,0.0,0.0,0.0,0.0,42.431,165.576,283.621,234.594,411.934,297.289,302.593,344.208,173.124,125.661,14.076,0.0,0.0,0.0,0.0,0.0,0.0,0.0,0.0,0.0,0.0,0.0,0.0,0.0,46.579,176.116,287.974,362.092,403.026,410.642,387.523,332.784,245.746,126.137,15.708,0.0,0.0,0.0,0.0,0.0,0.0,0.0,0.0,0.0,0.0,0.0,0.0,0.0,47.599,179.244,289.265,362.83900000000006,401.871,409.146,383.851,327.48,210.659,109.273,13.6,0.0,0.0,0.0,0.0,0.0,0.0,0.0,0.0,0.0,0.0,0.0,0.0,0.0,44.879,172.036,281.786,352.98,392.351,399.1499999999999,377.188,322.992,236.906,120.561,12.58,0.0,0.0,0.0,0.0,0.0,0.0,0.0,0.0,0.0,0.0,0.0,0.0,0.0,40.663,164.42,274.442,349.104,388.883,395.9549999999999,286.817,157.212,157.28,109.953,8.704,0.0,0.0,0.0,0.0,0.0,0.0,0.0,0.0,0.0,0.0,0.0,0.0,0.0,17.612,130.285,210.659,273.422,253.362,243.91,231.671,176.728,131.101,42.703,0.068,0.0,0.0,0.0,0.0,0.0,0.0,0.0,0.0,0.0,0.0,0.0,0.0,0.0,33.931,68.27,170.812,271.314,373.447,263.562,264.514,306.741,131.645,110.837,8.908,0.0,0.0,0.0,0.0,0.0,0.0,0.0,0.0,0.0,0.0,0.0,0.0,0.0,3.74,20.332,46.171,111.925,117.97700000000002,149.46,205.559,138.377,98.258,7.616,0.0,0.0,0.0,0.0,0.0,0.0,0.0,0.0,0.0,0.0,0.0,0.0,0.0,0.0,32.435,151.773,68.542,167.412,159.32,92.81799999999998,83.638,60.587,43.927,114.305,6.256000000000001,0.0,0.0,0.0,0.0,0.0,0.0,0.0,0.0,0.0,0.0,0.0,0.0,0.0,0.0,14.143999999999998,79.354,148.849,203.655,169.18,109.953,104.65000000000002,75.954,30.667,0.0,0.0,0.0,0.0,0.0,0.0,0.0,0.0,0.0,0.0,0.0,0.0,0.0,0.0,31.347,150.956,265.806,152.248,394.459,257.782,168.5,114.91700000000002,231.806,5.372,0.0,0.0,0.0,0.0,0.0,0.0,0.0,0.0,0.0,0.0,0.0,0.0,0.0,0.0,32.775,152.316,265.33,344.412,386.231,396.023,372.495,316.329,230.243,110.225,0.0,0.0,0.0,0.0,0.0,0.0,0.0,0.0,0.0,0.0,0.0,0.0,0.0,0.0,33.455,153.404,269.274,344.344,384.939,348.016,240.986,285.457,196.719,95.81,0.0,0.0,0.0,0.0,0.0,0.0,0.0,0.0,0.0,0.0,0.0,0.0,0.0,0.0,30.667,26.383000000000003,59.771,146.877,177.884,225.143,258.734,250.914,116.141,19.448,0.0,0.0,0.0,0.0,0.0,0.0,0.0,0.0,0.0,0.0,0.0,0.0,0.0,0.0,27.742999999999995,142.729,251.594,325.44,364.879,385.6190000000001,365.559,310.141,221.81,105.33,0.0,0.0,0.0,0.0,0.0,0.0,0.0,0.0,0.0,0.0,0.0,0.0,0.0,0.0,29.715,149.12,259.686,344.004,388.339,397.858,374.264,319.525,224.73500000000004,110.497,0.0,0.0,0.0,0.0,0.0,0.0,0.0,0.0,0.0,0.0,0.0,0.0,0.0,0.0,28.627,144.089,253.362,327.752,380.383,390.039,368.211,313.949,220.791,107.57299999999998,0.0,0.0,0.0,0.0,0.0,0.0,0.0,0.0,0.0,0.0,0.0,0.0,0.0,0.0,26.723,150.412,272.946,358.012,404.795,415.606,391.875,335.708,243.978,119.065,0.0,0.0,0.0,0.0,0.0,0.0,0.0,0.0,0.0,0.0,0.0,0.0,0.0,0.0,32.163,154.969,270.43,348.764,390.787,400.647,377.867,322.924,235.071,116.685,0.0,0.0,0.0,0.0,0.0,0.0,0.0,0.0,0.0,0.0,0.0,0.0,0.0,0.0,28.627,148.849,262.406,338.768,379.295,387.319,299.533,220.043,225.211,108.729,0.0,0.0,0.0,0.0,0.0,0.0,0.0,0.0,0.0,0.0,0.0,0.0,0.0,0.0,3.196,35.767,125.185,244.522,237.382,276.277,151.977,84.59,62.967000000000006,33.727,0.0,0.0,0.0,0.0,0.0,0.0,0.0,0.0,0.0,0.0,0.0,0.0,0.0,0.0,19.176,9.248,40.119,58.751,81.19,70.718,82.142,69.495,66.366,108.526,0.0,0.0,0.0,0.0,0.0,0.0,0.0,0.0,0.0,0.0,0.0,0.0,0.0,0.0,12.172,125.185,242.618,333.124,365.3560000000001,372.0870000000001,349.308,293.753,209.707,98.666,0.0,0.0,0.0,0.0,0.0,0.0,0.0,0.0,0.0,0.0,0.0,0.0,0.0,0.0,5.1,103.358,202.159,316.737,356.584,285.525,178.36,173.872,217.391,104.31,0.0,0.0,0.0,0.0,0.0,0.0,0.0,0.0,0.0,0.0,0.0,0.0,0.0,0.0,0.8839999999999999,31.415,146.673,218.411,296.133,289.333,269.41,208.075,120.49299999999998,84.25,0.0,0.0,0.0,0.0,0.0,0.0,0.0,0.0,0.0,0.0,0.0,0.0,0.0,0.0,0.0,30.327000000000005,233.642,314.357,358.556,368.416,349.104,113.353,218.751,102.95,0.0,0.0,0.0,0.0,0.0,0.0,0.0,0.0,0.0,0.0,0.0,0.0,0.0,0.0,14.688000000000002,120.697,228.339,312.589,356.651,367.123,272.674,201.479,212.767,98.87,0.0,0.0,0.0,0.0,0.0,0.0,0.0,0.0,0.0,0.0,0.0,0.0,0.0,0.0,6.052,54.73899999999999,96.694,168.976,256.626,273.83,264.174,212.903,167.48,70.65,0.0,0.0,0.0,0.0,0.0,0.0,0.0,0.0,0.0,0.0,0.0,0.0,0.0,0.0,7.071999999999999,104.85399999999998,152.724,259.89,339.924,274.306,289.266,207.123,152.044,45.967000000000006,0.0,0.0,0.0,0.0,0.0,0.0,0.0,0.0,0.0,0.0,0.0,0.0,0.0,0.0,9.044,111.449,217.051,300.757,163.808,152.52,248.058,281.854,198.215,91.118,0.0,0.0,0.0,0.0,0.0,0.0,0.0,0.0,0.0,0.0,0.0,0.0,0.0,0.0,7.616,107.913,212.495,18.156,107.641,218.275,336.456,99.34600000000002,6.120000000000001,0.0,0.0,0.0,0.0,0.0,0.0,0.0,0.0,0.0,0.0,0.0,0.0,0.0,0.0,0.0,0.0,108.38899999999998,216.50700000000003,300.281,345.568,358.351,340.672,289.401,202.975,98.53,0.0,0.0,0.0,0.0,0.0,0.0,0.0,0.0,0.0,0.0,0.0,0.0,0.0,0.0,0.0,108.797,214.875,297.153,342.576,356.652,335.709,166.324,64.327,36.175,0.0,0.0,0.0,0.0,0.0,0.0,0.0,0.0,0.0,0.0,0.0,0.0,0.0,0.0,0.0,44.743,107.029,214.467,341.624,365.559,246.63,217.323,164.624,102.338,0.0,0.0,0.0,0.0,0.0,0.0,0.0,0.0,0.0,0.0,0.0,0.0,0.0,0.0,0.0,117.025,233.575,133.277,244.79400000000004,227.318,205.423,300.009,215.147,105.806,0.0,0.0,0.0,0.0,0.0,0.0,0.0,0.0,0.0,0.0,0.0,0.0,0.0,0.0,0.0,118.249,242.075,332.988,387.727,405.338,386.571,334.689,245.95,122.66899999999998,0.0,0.0,0.0,0.0,0.0,0.0,0.0,0.0,0.0,0.0,0.0,0.0,0.0,0.0,0.0,121.513,240.10300000000004,323.74,316.124,288.449,281.785,310.072,223.579,110.973,0.0,0.0,0.0,0.0,0.0,0.0,0.0,0.0,0.0,0.0,0.0,0.0,0.0,0.0,0.0,44.675,114.305,215.35,188.764,28.899,70.106,35.563,38.487,32.979,0.0,0.0,0.0,0.0,0.0,0.0,0.0,0.0,0.0,0.0,0.0,0.0,0.0,0.0,0.0,5.576,26.519,82.618,116.345,53.923,72.826,113.149,82.618,46.783,0.0,0.0,0.0,0.0,0.0,0.0,0.0,0.0,0.0,0.0,0.0,0.0,0.0,0.0,0.0,117.773,239.287,325.713,373.379,388.2710000000001,382.083,318.437,235.819,121.241,0.0,0.0,0.0,0.0,0.0,0.0,0.0,0.0,0.0,0.0,0.0,0.0,0.0,0.0,0.0,117.162,236.70200000000003,321.224,367.531,382.491,366.647,317.417,235.886,122.941,0.0,0.0,0.0,0.0,0.0,0.0,0.0,0.0,0.0,0.0,0.0,0.0,0.0,0.0,0.0,109.614,236.635,328.297,382.083,398.199,380.859,328.16,235.343,121.105,0.0,0.0,0.0,0.0,0.0,0.0,0.0,0.0,0.0,0.0,0.0,0.0,0.0,0.0,0.0,115.869,236.839,320.816,367.124,382.219,364.67500000000007,315.989,235.547,122.193,0.0,0.0,0.0,0.0,0.0,0.0,0.0,0.0,0.0,0.0,0.0,0.0,0.0,0.0,0.0,99.142,209.435,291.169,336.388,349.784,333.124,213.991,211.475,106.078,7.14,0.0,0.0,0.0,0.0,0.0,0.0,0.0,0.0,0.0,0.0,0.0,0.0,0.0,0.0,88.67,202.227,284.981,334.892,350.464,334.892,289.333,85.95,104.85399999999998,5.916,0.0,0.0,0.0,0.0,0.0,0.0,0.0,0.0,0.0,0.0,0.0,0.0,0.0,0.0,86.698,63.987,65.346,48.415,117.365,109.477,135.181,90.438,105.806,7.14,0.0,0.0,0.0,0.0,0.0,0.0,0.0,0.0,0.0,0.0,0.0,0.0,0.0,0.0,49.163,85.95,86.086,86.086,92.206,75.682,64.259,67.726,21.352,0.0,0.0,0.0,0.0,0.0,0.0,0.0,0.0,0.0,0.0,0.0,0.0,0.0,0.0,0.0,116.005,247.854,340.06,395.818,413.906,396.9750000000001,346.044,259.618,137.017,20.468,0.0,0.0,0.0,0.0,0.0,0.0,0.0,0.0,0.0,0.0,0.0,0.0,0.0,0.0,61.335,184.14,255.742,324.012,347.676,373.311,319.66,234.867,55.963,1.36,0.0,0.0,0.0,0.0,0.0,0.0,0.0,0.0,0.0,0.0,0.0,0.0,0.0,0.0,10.2,5.78,108.933,104.786,195.291,61.063,99.21,118.045,49.231,0.816,0.0,0.0,0.0,0.0,0.0,0.0,0.0,0.0,0.0,0.0,0.0,0.0,0.0,0.0,2.108,53.039,153.676,132.461,176.456,202.567,82.21,64.87,7.344000000000001,0.0,0.0,0.0,0.0,0.0,0.0,0.0,0.0,0.0,0.0,0.0,0.0,0.0,0.0,0.0,16.456,71.262,51.067,119.405,101.25,98.19,129.197,76.634,0.0,0.0,0.0,0.0,0.0,0.0,0.0,0.0,0.0,0.0,0.0,0.0,0.0,0.0,0.0,0.0,32.163,117.161,166.528,219.227,361.072,346.112,312.861,230.107,124.437,19.652,0.0,0.0,0.0,0.0,0.0,0.0,0.0,0.0,0.0,0.0,0.0,0.0,0.0,0.0,52.087,172.444,302.185,294.365,152.588,160.816,164.692,46.919,52.155,2.516,0.0,0.0,0.0,0.0,0.0,0.0,0.0,0.0,0.0,0.0,0.0,0.0,0.0,0.0,2.652,28.423,21.623,54.943,99.958,88.262,117.365,53.51500000000001,66.91,4.352,0.0,0.0,0.0,0.0,0.0,0.0]
...